45

C    9.4375  -4.7235  -0.0112
C    9.7802  -3.3735  -0.0130
C    8.8223  -2.4062  -0.0165
C    7.4645  -2.7690  -0.0081
C    7.1184  -4.1423  -0.0008
C    8.1322  -5.1128  -0.0025
C    5.7566  -4.5066   0.0076
C    4.8228  -3.5146   0.0075
C    5.2291  -2.1727   0.0000
H   10.2167  -5.4714  -0.0121
H   10.8223  -3.0897  -0.0158
H    9.1048  -1.3638  -0.0221
H    7.8787  -6.1626   0.0026
H    5.4612  -5.5455   0.0129
H    3.7714  -3.7614   0.0131
N    6.5225  -1.7643  -0.0078
H    6.7824  -0.7710  -0.0132
N    4.5402  -1.4573   0.0000
C    3.2367  -1.8217   0.0000
C    2.2488  -0.6730   0.0000
C    0.8081  -1.1484   0.0000
O    0.0000   0.0000   0.0000
H    4.8275  -0.5089   0.0000
O    2.8947  -2.9720   0.0000
H    2.4244  -0.0479   0.8714
H    2.4244  -0.0479  -0.8714
H    0.6217  -1.7628   0.8756
H    0.6217  -1.7628  -0.8756
C   -1.8759   2.0777   0.0266
N   -1.9577   0.6151   0.0117
C   -3.1140  -0.1403   0.0068
C   -4.4681   0.1655   0.0135
C   -5.3981  -0.8523   0.0051
C   -4.9893  -2.1783  -0.0046
C   -3.6611  -2.4979  -0.0163
C   -2.7007  -1.4830  -0.0085
N   -1.3427  -1.4792  -0.0118
C   -0.9083  -0.2516   0.0000
H   -1.8532   2.4299   1.0579
H   -0.9682   2.3960  -0.4862
H   -2.7455   2.4954  -0.4809
H   -4.7915   1.1958   0.0255
H   -6.4519  -0.6159   0.0107
H   -5.7287  -2.9656  -0.0065
H   -3.3539  -3.5331  -0.0276
