64

C    4.6817  -2.0631   1.1998
C    3.5480  -1.2741   1.2024
C    2.9803  -0.8729   0.0000
C    3.5553  -1.2672  -1.2018
C    4.6884  -2.0561  -1.1972
C    5.2480  -2.4585   0.0020
S    5.4183  -2.5568  -2.7207
O    4.3895  -2.5069  -3.6997
O    6.1542  -3.7415  -2.4485
N    6.5250  -1.3976  -3.1378
C    6.1388  -0.2452  -3.9673
C    6.6226   1.0339  -3.2655
O    8.0146   0.9064  -2.9655
C    8.3230  -0.1556  -2.0594
C    7.9250  -1.4927  -2.6948
H    5.1237  -2.3755   2.1344
H    3.1035  -0.9696   2.1384
H    3.1164  -0.9567  -2.1385
H    6.1316  -3.0795   0.0027
H    6.6048  -0.3272  -4.9492
H    5.0546  -0.2180  -4.0760
H    6.0628   1.1793  -2.3416
H    6.4688   1.8897  -3.9229
H    7.7695  -0.0145  -1.1311
H    9.3927  -0.1562  -1.8499
H    8.0243  -2.2920  -1.9604
H    8.5677  -1.6988  -3.5507
N    2.2914  -0.1575   0.0000
C    0.9879  -0.5219   0.0000
C    0.0000   0.6268   0.0000
C   -1.4406   0.1514   0.0000
O   -2.2488   1.2998   0.0000
H    2.5787   0.7909   0.0000
O    0.6459  -1.6722   0.0000
H    0.1756   1.2519   0.8714
H    0.1756   1.2519  -0.8714
H   -1.6271  -0.4630   0.8756
H   -1.6271  -0.4630  -0.8756
C   -8.7650   3.5842   0.0430
C   -7.5064   2.7553   0.0308
C   -6.2491   3.2185   0.0319
N   -5.3631   2.1670   0.0185
C   -6.0594   0.9714   0.0083
C   -7.4284   1.2904   0.0156
C   -8.3809   0.2710   0.0025
C   -7.9716  -1.0442  -0.0064
C   -6.6205  -1.3578  -0.0132
C   -5.6679  -0.3609  -0.0061
C   -4.0203   2.2834   0.0157
O   -3.5071   3.3815   0.0260
C   -3.1571   1.0482   0.0000
C   -5.8634   4.6752   0.0450
H   -9.0657   3.7731   1.0735
H   -8.5803   4.5327  -0.4613
H   -9.5593   3.0462  -0.4744
H   -9.4337   0.5119   0.0036
H   -8.7067  -1.8354  -0.0128
H   -6.3116  -2.3927  -0.0243
H   -4.6184  -0.6159  -0.0121
H   -3.3674   0.4467   0.8842
H   -3.3727   0.4657  -0.8956
H   -5.7672   5.0164   1.0757
H   -4.9117   4.8037  -0.4706
H   -6.6323   5.2592  -0.4608
