52

C    6.3129  -1.5576   1.1760
C    4.9778  -1.7332   1.1913
C    5.8658  -3.6993   1.2401
N    6.8767  -2.8045   1.2069
H    7.8546  -3.0137   1.2054
C    3.9406  -0.6402   1.1682
C    2.9803  -0.8729   0.0000
H    6.8379  -0.6143   1.1457
H    5.9764  -4.7732   1.2697
H    3.3825  -0.6490   2.1045
H    4.4324   0.3250   1.0475
H    3.5382  -0.8641  -0.9363
H    2.4884  -1.8380   0.1208
N    4.7343  -3.0508   1.2305
H    3.8026  -3.4820   1.2499
N    2.2914  -0.1575   0.0000
C    0.9879  -0.5219   0.0000
C    0.0000   0.6268   0.0000
C   -1.4406   0.1514   0.0000
O   -2.2488   1.2998   0.0000
H    2.5787   0.7909   0.0000
O    0.6459  -1.6722   0.0000
H    0.1756   1.2519   0.8714
H    0.1756   1.2519  -0.8714
H   -1.6271  -0.4630   0.8756
H   -1.6271  -0.4630  -0.8756
C   -8.7650   3.5842   0.0430
C   -7.5064   2.7553   0.0308
C   -6.2491   3.2185   0.0319
N   -5.3631   2.1670   0.0185
C   -6.0594   0.9714   0.0083
C   -7.4284   1.2904   0.0156
C   -8.3809   0.2710   0.0025
C   -7.9716  -1.0442  -0.0064
C   -6.6205  -1.3578  -0.0132
C   -5.6679  -0.3609  -0.0061
C   -4.0203   2.2834   0.0157
O   -3.5071   3.3815   0.0260
C   -3.1571   1.0482   0.0000
C   -5.8634   4.6752   0.0450
H   -9.0657   3.7731   1.0735
H   -8.5803   4.5327  -0.4613
H   -9.5593   3.0462  -0.4744
H   -9.4337   0.5119   0.0036
H   -8.7067  -1.8354  -0.0128
H   -6.3116  -2.3927  -0.0243
H   -4.6184  -0.6159  -0.0121
H   -3.3674   0.4467   0.8842
H   -3.3727   0.4657  -0.8956
H   -5.7672   5.0164   1.0757
H   -4.9117   4.8037  -0.4706
H   -6.6323   5.2592  -0.4608
