62

C    7.1713  -7.6223  -1.1912
N    6.9541  -6.1734  -1.1839
C    5.7441  -5.5334  -1.1825
C    6.0024  -4.2118  -1.1804
N    7.3338  -4.0492  -1.1717
C    7.9104  -5.2199  -1.1770
C    4.9756  -3.1088  -1.1834
C    5.2291  -2.1727   0.0000
H    7.2269  -7.9760  -2.2207
H    8.1044  -7.8524  -0.6770
H    6.3441  -8.1162  -0.6815
H    4.7696  -5.9990  -1.1870
H    8.9758  -5.3968  -1.1765
H    5.0494  -2.5461  -2.1140
H    3.9784  -3.5405  -1.0980
H    5.1551  -2.7354   0.9307
H    6.2262  -1.7410  -0.0853
N    4.5402  -1.4573   0.0000
C    3.2367  -1.8217   0.0000
C    2.2488  -0.6730   0.0000
C    0.8081  -1.1484   0.0000
O    0.0000   0.0000   0.0000
H    4.8275  -0.5089   0.0000
O    2.8947  -2.9720   0.0000
H    2.4244  -0.0479   0.8714
H    2.4244  -0.0479  -0.8714
H    0.6217  -1.7628   0.8756
H    0.6217  -1.7628  -0.8756
C   -6.1676   2.3028  -1.1522
C   -5.4498   1.6793   0.0465
C   -6.0049   2.2687   1.3791
H   -7.0866   2.3915   1.4319
C   -5.3639   1.3859   2.4932
C   -3.8677   1.7743   2.4873
C   -3.7455   2.8553   1.3701
H   -2.8597   3.4888   1.4150
C   -5.1364   3.5700   1.5046
C   -3.9536   2.0677   0.0405
C   -3.6383   2.9569  -1.1639
N   -3.1143   0.8671   0.0214
C   -1.7716   0.9835   0.0134
O   -1.2582   2.0822   0.0221
C   -0.9083  -0.2516   0.0000
C   -5.6059   0.1574   0.0277
H   -5.7115   1.9447  -2.0752
H   -7.2199   2.0196  -1.1333
H   -6.0824   3.3884  -1.1023
H   -5.8112   1.6116   3.4612
H   -5.4830   0.3287   2.2558
H   -3.5795   2.1910   3.4524
H   -3.2512   0.9081   2.2470
H   -5.3200   4.2647   0.6850
H   -5.2571   4.0499   2.4758
H   -3.8416   2.4084  -2.0836
H   -4.2611   3.8508  -1.1287
H   -2.5873   3.2451  -1.1375
H   -3.5250  -0.0116   0.0144
H   -1.1190  -0.8519   0.8850
H   -1.1235  -0.8356  -0.8948
H   -5.0119  -0.2787   0.8309
H   -6.6550  -0.1021   0.1696
H   -5.2619  -0.2313  -0.9308
