49

C    6.0612  -2.8619   1.1912
N    4.6216  -2.5902   1.1839
C    4.0277  -1.3570   1.1825
C    2.6973  -1.5652   1.1804
N    2.4845  -2.8895   1.1717
C    3.6326  -3.5099   1.1770
C    1.6339  -0.4974   1.1834
C    0.6889  -0.7154   0.0000
H    6.4126  -2.9309   2.2207
H    6.2559  -3.8031   0.6770
H    6.5860  -2.0540   0.6815
H    4.5298  -0.4007   1.1870
H    3.7692  -4.5812   1.1765
H    1.0688  -0.5499   2.1140
H    2.1029   0.4828   1.0980
H    1.2539  -0.6627  -0.9307
H    0.2198  -1.6955   0.0853
N    0.0000   0.0000   0.0000
C   -1.3035  -0.3643   0.0000
C   -2.2914   0.7843   0.0000
C   -3.7321   0.3090   0.0000
O   -4.5402   1.4573   0.0000
H    0.2873   0.9484   0.0000
O   -1.6455  -1.5147   0.0000
H   -2.1158   1.4094   0.8714
H   -2.1158   1.4094  -0.8714
H   -3.9185  -0.3054   0.8756
H   -3.9185  -0.3054  -0.8756
C   -9.1657   3.1920  -2.5225
C   -9.1394   3.8843  -1.1841
C   -8.4608   3.4743  -0.0822
C   -8.7063   4.3997   0.9427
N   -9.5004   5.3290   0.4764
N   -9.7906   5.0314  -0.8611
H  -10.3740   5.5686  -1.4704
C   -8.1506   4.3345   2.3420
N   -7.6545   2.3245   0.0148
C   -6.3118   2.4409   0.0126
O   -5.7983   3.5397   0.0206
C   -5.4485   1.2057   0.0000
H   -8.3555   3.5725  -3.1443
H   -9.0403   2.1188  -2.3789
H  -10.1205   3.3839  -3.0121
H   -7.2828   4.9896   2.4193
H   -8.9132   4.6566   3.0511
H   -7.8539   3.3103   2.5678
H   -8.0654   1.4484   0.0832
H   -5.6593   0.6061   0.8854
H   -5.6636   0.6212  -0.8944
